
#======================================================================
# CRYSTAL DATA
#----------------------------------------------------------------------
data_VESTA_phase_1

_chemical_name_common                  'Mn (N (C N2 ))2'
_cell_length_a                         6.109600
_cell_length_b                         7.255500
_cell_length_c                         7.570800
_cell_angle_alpha                      90.000000
_cell_angle_beta                       90.000000
_cell_angle_gamma                      90.000000
_cell_volume                           335.599946
_space_group_name_H-M_alt              'Pnn'm''
_space_group_IT_number                 58

loop_
_space_group_symop_operation_xyz
   'x, y, z'
   '-x+1/2t, y+1/2t, -z+1/2t'
   'x+1/2t, -y+1/2t, -z+1/2t'
   '-x, -y, z'
   '-x, -y, -z'
   'x+1/2t, -y+1/2t, z+1/2t'
   '-x+1/2t, y+1/2t, z+1/2t'
   'x, y, -z'

loop_
   _atom_site_label
   _atom_site_occupancy
   _atom_site_fract_x
   _atom_site_fract_y
   _atom_site_fract_z
   _atom_site_adp_type
   _atom_site_U_iso_or_equiv
   _atom_site_type_symbol
   Mn1        1.0     0.000000     0.000000     0.000000    Uiso  ? Mn
   C1         1.0     0.273200     0.857900     0.352000    Uiso  ? C
   N1         1.0     0.218800     0.910700     0.212800    Uiso  ? N
   N2         1.0     0.154500     0.287600     0.000000    Uiso  ? N
