
#======================================================================
# CRYSTAL DATA
#----------------------------------------------------------------------
data_VESTA_phase_1

_chemical_name_common                  '5yOhtAoR'
_cell_length_a                         10.208100
_cell_length_b                         10.208100
_cell_length_c                         10.208100
_cell_angle_alpha                      90.000000
_cell_angle_beta                       90.000000
_cell_angle_gamma                      90.000000
_cell_volume                           1063.738280
_space_group_name_H-M_alt              'Fd'd'd'
_space_group_IT_number                 70

loop_
_space_group_symop_operation_xyz
   'x, y, z'
   'x, -y+3/4t, -z+3/4t'
   '-x+3/4t, y, -z+3/4t'
   '-x+3/4t, -y+3/4t, z'
   '-x, -y, -z'
   '-x, y+1/4t, z+1/4t'
   'x+1/4t, -y, z+1/4t'
   'x+1/4t, y+1/4t, -z'
   'x, y+1/2t, z+1/2t'
   'x, -y+1/4t, -z+1/4t'
   '-x+3/4t, y+1/2t, -z+1/4t'
   '-x+3/4t, -y+1/4t, z+1/2t'
   '-x, -y+1/2t, -z+1/2t'
   '-x, y+3/4t, z+3/4t'
   'x+1/4t, -y+1/2t, z+3/4t'
   'x+1/4t, y+3/4t, -z+1/2t'
   'x+1/2t, y, z+1/2t'
   'x+1/2t, -y+3/4t, -z+1/4t'
   '-x+1/4t, y, -z+1/4t'
   '-x+1/4t, -y+3/4t, z+1/2t'
   '-x+1/2t, -y, -z+1/2t'
   '-x+1/2t, y+1/4t, z+3/4t'
   'x+3/4t, -y, z+3/4t'
   'x+3/4t, y+1/4t, -z+1/2t'
   'x+1/2t, y+1/2t, z'
   'x+1/2t, -y+1/4t, -z+3/4t'
   '-x+1/4t, y+1/2t, -z+3/4t'
   '-x+1/4t, -y+1/4t, z'
   '-x+1/2t, -y+1/2t, -z'
   '-x+1/2t, y+3/4t, z+1/4t'
   'x+3/4t, -y+1/2t, z+1/4t'
   'x+3/4t, y+3/4t, -z'

loop_
   _atom_site_label
   _atom_site_occupancy
   _atom_site_fract_x
   _atom_site_fract_y
   _atom_site_fract_z
   _atom_site_adp_type
   _atom_site_B_iso_or_equiv
   _atom_site_type_symbol
   Bi1        1.0     0.500000     0.500000     0.500000    Biso  1.000000 Bi
   Ru1        0.6000  0.000000     0.000000     0.000000    Biso  1.000000 Ru
   Mn1        0.1500  0.000000     0.000000     0.000000    Biso  1.000000 Mn
   Bi2        0.2500  0.000000     0.000000     0.000000    Biso  1.000000 Bi
   O1_1       1.0     0.32600(10)  0.125000     0.125000    Biso  1.000000 O
   O1_2       1.0     0.125000     0.326000     0.125000    Biso  1.000000 O
   O1_3       1.0     0.125000     0.125000     0.326000    Biso  1.000000 O
   O2         1.0     0.375000     0.375000     0.375000    Biso  1.000000 O
