
#======================================================================
# CRYSTAL DATA
#----------------------------------------------------------------------
data_VESTA_phase_1

_chemical_name_common                  '5yOhtAoR'
_cell_length_a                         5.386600
_cell_length_b                         14.632500
_cell_length_c                         5.597200
_cell_angle_alpha                      90.000000
_cell_angle_beta                       90.000000
_cell_angle_gamma                      90.000000
_cell_volume                           441.168068
_space_group_name_H-M_alt              'Pn'm'a'
_space_group_IT_number                 62

loop_
_space_group_symop_operation_xyz
   'x, y, z'
   'x+1/2t, -y+1/2t, -z+1/2t'
   '-x, y+1/2t, -z'
   '-x+1/2t, -y, z+1/2t'
   '-x, -y, -z'
   '-x+1/2t, y+1/2t, z+1/2t'
   'x, -y+1/2t, z'
   'x+1/2t, y, -z+1/2t'

loop_
   _atom_site_label
   _atom_site_occupancy
   _atom_site_fract_x
   _atom_site_fract_y
   _atom_site_fract_z
   _atom_site_adp_type
   _atom_site_U_iso_or_equiv
   _atom_site_type_symbol
   Ca1        1.0     0.482100     0.108300     0.026800    Uiso  ? Ca
   Fe1        0.7900  0.000000     0.000000     0.000000    Uiso  ? Fe
   Cr1        0.1200  0.000000     0.000000     0.000000    Uiso  ? Cr
   Ga2        0.0900  0.000000     0.000000     0.000000    Uiso  ? Ga
   Fe2        0.0900  0.449600     0.250000     0.569100    Uiso  ? Fe
   Ga1        0.9100  0.449600     0.250000     0.569100    Uiso  ? Ga
   O1         1.0     0.264100     0.984600     0.240100    Uiso  ? O
   O2         1.0     0.022900     0.141100     0.071700    Uiso  ? O
   O3         1.0     0.603900     0.250000     0.875000    Uiso  ? O
