
#======================================================================
# CRYSTAL DATA
#----------------------------------------------------------------------
data_VESTA_phase_1

_chemical_name_common                  '5yOhtAoR'
_cell_length_a                         8.521100
_cell_length_b                         11.977900
_cell_length_c                         9.059300
_cell_angle_alpha                      90.000000
_cell_angle_beta                       90.000000
_cell_angle_gamma                      90.000000
_cell_volume                           924.636414
_space_group_name_H-M_alt              'Pn'n'a'
_space_group_IT_number                 52

loop_
_space_group_symop_operation_xyz
   'x, y, z'
   'x, -y+1/2t, -z+1/2t'
   '-x+1/2t, y+1/2t, -z+1/2t'
   '-x+1/2t, -y, z'
   '-x, -y, -z'
   '-x, y+1/2t, z+1/2t'
   'x+1/2t, -y+1/2t, z+1/2t'
   'x+1/2t, y, -z'

loop_
   _atom_site_label
   _atom_site_occupancy
   _atom_site_fract_x
   _atom_site_fract_y
   _atom_site_fract_z
   _atom_site_adp_type
   _atom_site_U_iso_or_equiv
   _atom_site_type_symbol
   Mn1        1.0     0.251920     0.250000     0.250000    Uiso  ? Mn
   O1         1.0     0.256850     0.407460     0.371530    Uiso  ? O
   O2         1.0     0.404340     0.179490     0.416320    Uiso  ? O
   O3         1.0     0.557420     0.191350     0.612270    Uiso  ? O
   C1         1.0     0.250000     0.000000     0.189200    Uiso  ? C
   H1         1.0     0.250000     0.000000     0.291800    Uiso  ? H
   C2         1.0     0.519800     0.216540     0.484930    Uiso  ? C
   H2         1.0     0.583300     0.267700     0.435900    Uiso  ? H
   C3         1.0     0.250000     0.000000     0.740000    Uiso  ? C
   N1         1.0     0.336100     0.427200     0.687770    Uiso  ? N
   H3         1.0     0.336300     0.427100     0.592800    Uiso  ? H
   H4         1.0     0.392300     0.379700     0.735400    Uiso  ? H
   N2         1.0     0.250000     0.000000     0.594000    Uiso  ? N
   H5         0.5000  0.193700     0.547600     0.953400    Uiso  ? H
   H6         0.5000  0.306300     0.452400     0.953400    Uiso  ? H
