
#======================================================================
# CRYSTAL DATA
#----------------------------------------------------------------------
data_VESTA_phase_1

_chemical_name_common                  '5yOhtAoR'
_cell_length_a                         5.627800
_cell_length_b                         5.593500
_cell_length_c                         7.914400
_cell_angle_alpha                      90.000000
_cell_angle_beta                       89.949997
_cell_angle_gamma                      90.000000
_cell_volume                           249.138097
_space_group_name_H-M_alt              'P2_1/c'
_space_group_IT_number                 14

loop_
_space_group_symop_operation_xyz
   'x, y, z'
   '-x+1/2t, y+1/2t, -z+1/2t'
   '-x, -y, -z'
   'x+1/2t, -y+1/2t, z+1/2t'

loop_
   _atom_site_label
   _atom_site_occupancy
   _atom_site_fract_x
   _atom_site_fract_y
   _atom_site_fract_z
   _atom_site_adp_type
   _atom_site_U_iso_or_equiv
   _atom_site_type_symbol
   Sr1        1.0     0.000000     0.492200     0.250000    Uiso  ? Sr
   Co1        0.9000  0.000000     0.000000     0.500000    Uiso  ? Co
   Mg1        0.1000  0.000000     0.000000     0.500000    Uiso  ? Mg
   Te1        1.0     0.000000     0.000000     0.000000    Uiso  ? Te
   O1         1.0     0.222900     0.257900     0.973900    Uiso  ? O
   O2         1.0     0.552300     0.500000     0.740500    Uiso  ? O
   O3         1.0     0.742100     0.222900     0.026100    Uiso  ? O
