
#======================================================================
# CRYSTAL DATA
#----------------------------------------------------------------------
data_VESTA_phase_1

_chemical_name_common                  '5yOhtAoR'
_cell_length_a                         5.018700
_cell_length_b                         5.018700
_cell_length_c                         13.587900
_cell_angle_alpha                      90.000000
_cell_angle_beta                       90.000000
_cell_angle_gamma                      120.000000
_cell_volume                           296.391314
_space_group_name_H-M_alt              'Cc''
_space_group_IT_number                 9

loop_
_space_group_symop_operation_xyz
   'x, y, z'
   '-x+y+1/3t, y+2/3t, z+1/6t'
   'x+2/3t, y+1/3t, z+1/3t'
   '-x+y, y, z+1/2t'
   'x+1/3t, y+2/3t, z+2/3t'
   '-x+y+2/3t, y+1/3t, z+5/6t'

loop_
   _atom_site_label
   _atom_site_occupancy
   _atom_site_fract_x
   _atom_site_fract_y
   _atom_site_fract_z
   _atom_site_adp_type
   _atom_site_U_iso_or_equiv
   _atom_site_type_symbol
   Ga1        0.3200  0.000000     0.000000     0.000000    Uiso  ? Ga
   Fe1        0.6800  0.000000     0.000000     0.000000    Uiso  ? Fe
   Ga2        0.6800  0.000000     0.000000     0.289190    Uiso  ? Ga
   Fe2        0.3200  0.000000     0.000000     0.289190    Uiso  ? Fe
   O1_1       1.0     0.302630     0.995400     0.892000    Uiso  ? O
   O1_2       1.0     0.004600     0.307230     0.892000    Uiso  ? O
   O1_3       1.0     0.692770     0.697370     0.892000    Uiso  ? O
