
#======================================================================
# CRYSTAL DATA
#----------------------------------------------------------------------
data_VESTA_phase_1

_chemical_name_common                  'La0 .5Sr0 .5Fe O2 .5F0 .5'
_cell_length_a                         5.557500
_cell_length_b                         7.873100
_cell_length_c                         5.588700
_cell_angle_alpha                      90.000000
_cell_angle_beta                       90.000000
_cell_angle_gamma                      90.000000
_cell_volume                           244.532170
_space_group_name_H-M_alt              'Pn'ma''
_space_group_IT_number                 62

loop_
_space_group_symop_operation_xyz
   'x, y, z'
   'x+1/2t, -y+1/2t, -z+1/2t'
   '-x, y+1/2t, -z'
   '-x+1/2t, -y, z+1/2t'
   '-x, -y, -z'
   '-x+1/2t, y+1/2t, z+1/2t'
   'x, -y+1/2t, z'
   'x+1/2t, y, -z+1/2t'

loop_
   _atom_site_label
   _atom_site_occupancy
   _atom_site_fract_x
   _atom_site_fract_y
   _atom_site_fract_z
   _atom_site_adp_type
   _atom_site_U_iso_or_equiv
   _atom_site_type_symbol
   Sr         0.5000  0.992750     0.250000     0.497470    Uiso  ? Sr
   La         0.5000  0.992750     0.250000     0.497470    Uiso  ? La
   Fe         1.0     0.000000     0.000000     0.000000    Uiso  ? Fe
   O1         0.8333  0.001500     0.250000     0.936950    Uiso  ? O
   F1         0.1667  0.001500     0.250000     0.936950    Uiso  ? F
   O2         0.8333  0.237630     0.034580     0.260960    Uiso  ? O
   F2         0.1667  0.237630     0.034580     0.260960    Uiso  ? F
