
#======================================================================
# CRYSTAL DATA
#----------------------------------------------------------------------
data_VESTA_phase_1

_chemical_name_common                  '5yOhtAoR'
_cell_length_a                         9.545700
_cell_length_b                         12.488500
_cell_length_c                         3.103700
_cell_angle_alpha                      90.000000
_cell_angle_beta                       90.000000
_cell_angle_gamma                      90.000000
_cell_volume                           369.996636
_space_group_name_H-M_alt              'Pbam'
_space_group_IT_number                 55

loop_
_space_group_symop_operation_xyz
   'x, y, z'
   'x+1/2t, -y+1/2t, -z'
   '-x+1/2t, y+1/2t, -z'
   '-x, -y, z'
   '-x, -y, -z'
   '-x+1/2t, y+1/2t, z'
   'x+1/2t, -y+1/2t, z'
   'x, y, -z'

loop_
   _atom_site_label
   _atom_site_occupancy
   _atom_site_fract_x
   _atom_site_fract_y
   _atom_site_fract_z
   _atom_site_adp_type
   _atom_site_U_iso_or_equiv
   _atom_site_type_symbol
   Fe1        0.2800  0.000000     0.000000     0.000000    Uiso  ? Fe
   Fe2        0.6800  0.500000     0.000000     0.500000    Uiso  ? Fe
   Fe3        0.2500  0.000400     0.276100     0.000000    Uiso  ? Fe
   Fe4        0.7800  0.738900     0.385100     0.500000    Uiso  ? Fe
   Mn1        0.7200  0.000000     0.000000     0.000000    Uiso  ? Mn
   Mn2        0.3200  0.500000     0.000000     0.500000    Uiso  ? Mn
   Mn3        0.7500  0.000400     0.276100     0.000000    Uiso  ? Mn
   Mn4        0.2200  0.738900     0.385100     0.500000    Uiso  ? Mn
   B1         1.0     0.270000     0.362000     0.500000    Uiso  ? B
   O1         1.0     0.844000     0.044000     0.500000    Uiso  ? O
   O2         1.0     0.386000     0.075000     0.000000    Uiso  ? O
   O3         1.0     0.625000     0.139000     0.500000    Uiso  ? O
   O4         1.0     0.112000     0.142000     0.000000    Uiso  ? O
   O5         1.0     0.841000     0.236000     0.500000    Uiso  ? O
