
#======================================================================
# CRYSTAL DATA
#----------------------------------------------------------------------
data_VESTA_phase_1

_chemical_name_common                  '5yOhtAoR'
_cell_length_a                         2.904230
_cell_length_b                         9.773250
_cell_length_c                         12.581730
_cell_angle_alpha                      90.000000
_cell_angle_beta                       90.000000
_cell_angle_gamma                      90.000000
_cell_volume                           357.116876
_space_group_name_H-M_alt              'Cm'cm''
_space_group_IT_number                 63

loop_
_space_group_symop_operation_xyz
   'x, y, z'
   'x, -y, -z'
   '-x, y, -z+1/2t'
   '-x, -y, z+1/2t'
   '-x, -y, -z'
   '-x, y, z'
   'x, -y, z+1/2t'
   'x, y, -z+1/2t'
   'x+1/2t, y+1/2t, z'
   'x+1/2t, -y+1/2t, -z'
   '-x+1/2t, y+1/2t, -z+1/2t'
   '-x+1/2t, -y+1/2t, z+1/2t'
   '-x+1/2t, -y+1/2t, -z'
   '-x+1/2t, y+1/2t, z'
   'x+1/2t, -y+1/2t, z+1/2t'
   'x+1/2t, y+1/2t, -z+1/2t'

loop_
   _atom_site_label
   _atom_site_occupancy
   _atom_site_fract_x
   _atom_site_fract_y
   _atom_site_fract_z
   _atom_site_adp_type
   _atom_site_U_iso_or_equiv
   _atom_site_type_symbol
   Fe1        1.0     0.500000     0.239300     0.115900    Uiso  ? Fe
   Fe2        0.7800  0.000000     0.000000     0.000000    Uiso  ? Fe
   Fe3        0.6400  0.000000     0.491500     0.250000    Uiso  ? Fe
   Co2        0.2200  0.000000     0.000000     0.000000    Uiso  ? Co
   Co3        0.3600  0.000000     0.491500     0.250000    Uiso  ? Co
   O1         1.0     0.500000     0.335200     0.250000    Uiso  ? O
   O2         1.0     0.000000     0.360000     0.044800    Uiso  ? O
   O3         1.0     0.000000     0.092300     0.142200    Uiso  ? O
