
#======================================================================
# CRYSTAL DATA
#----------------------------------------------------------------------
data_VESTA_phase_1

_chemical_name_common                  '5yOhtAoR'
_cell_length_a                         7.6076(2)
_cell_length_b                         7.6076(2)
_cell_length_c                         15.2505(7)
_cell_angle_alpha                      90.000000
_cell_angle_beta                       90.000000
_cell_angle_gamma                      90.000000
_cell_volume                           882.631532
_space_group_name_H-M_alt              'I4'/mmm''
_space_group_IT_number                 139

loop_
_space_group_symop_operation_xyz
   'x, y, z'
   '-y, x, z'
   'y, -x, z'
   'x, -y, -z'
   '-x, y, -z'
   '-x, -y, z'
   'y, x, -z'
   '-y, -x, -z'
   '-x, -y, -z'
   'y, -x, -z'
   '-y, x, -z'
   '-x, y, z'
   'x, -y, z'
   'x, y, -z'
   '-y, -x, z'
   'y, x, z'
   'x+1/2t, y+1/2t, z+1/2t'
   '-y+1/2t, x+1/2t, z+1/2t'
   'y+1/2t, -x+1/2t, z+1/2t'
   'x+1/2t, -y+1/2t, -z+1/2t'
   '-x+1/2t, y+1/2t, -z+1/2t'
   '-x+1/2t, -y+1/2t, z+1/2t'
   'y+1/2t, x+1/2t, -z+1/2t'
   '-y+1/2t, -x+1/2t, -z+1/2t'
   '-x+1/2t, -y+1/2t, -z+1/2t'
   'y+1/2t, -x+1/2t, -z+1/2t'
   '-y+1/2t, x+1/2t, -z+1/2t'
   '-x+1/2t, y+1/2t, z+1/2t'
   'x+1/2t, -y+1/2t, z+1/2t'
   'x+1/2t, y+1/2t, -z+1/2t'
   '-y+1/2t, -x+1/2t, z+1/2t'
   'y+1/2t, x+1/2t, z+1/2t'

loop_
   _atom_site_label
   _atom_site_occupancy
   _atom_site_fract_x
   _atom_site_fract_y
   _atom_site_fract_z
   _atom_site_adp_type
   _atom_site_U_iso_or_equiv
   _atom_site_type_symbol
   Sr1        1.0     0.000000     0.000000     0.8787(5)   Uiso  ? Sr
   Ho1        1.0     0.000000     0.000000     0.3514(4)   Uiso  ? Ho
   Sr2        0.9000  0.000000     0.500000     0.8677(4)   Uiso  ? Sr
   Ho2        0.1000  0.000000     0.500000     0.867700    Uiso  ? Ho
   Co1        1.0     0.7486(8)    0.748600     0.000000    Uiso  ? Co
   Co2        1.0     0.250000     0.250000     0.250000    Uiso  ? Co
   O1         1.0     0.000000     0.2453(4)    0.2393(2)   Uiso  ? O
   O2         1.0     0.2863(4)    0.286300     0.1184(4)   Uiso  ? O
   O3         0.9840  0.7193(7)    0.000000     0.000000    Uiso  ? O
   O4         0.4120  0.390(2)     0.500000     0.000000    Uiso  ? O
