
#======================================================================
# CRYSTAL DATA
#----------------------------------------------------------------------
data_VESTA_phase_1

_chemical_name_common                  'Sc Fe O3'
_cell_length_a                         5.202500
_cell_length_b                         5.202500
_cell_length_c                         14.014500
_cell_angle_alpha                      90.000000
_cell_angle_beta                       90.000000
_cell_angle_gamma                      120.000000
_cell_volume                           328.497739
_space_group_name_H-M_alt              'Cc''
_space_group_IT_number                 9

loop_
_space_group_symop_operation_xyz
   'x, y, z'
   '-x+y, y, z+1/2t'
   'x+1/3t, y+2/3t, z+2/3t'
   '-x+y+1/3t, y+2/3t, z+1/6t'
   'x+2/3t, y+1/3t, z+1/3t'
   '-x+y+2/3t, y+1/3t, z+5/6t'

loop_
   _atom_site_label
   _atom_site_occupancy
   _atom_site_fract_x
   _atom_site_fract_y
   _atom_site_fract_z
   _atom_site_adp_type
   _atom_site_U_iso_or_equiv
   _atom_site_type_symbol
   O1_1       1.0     0.342300     0.973930     0.817570    Uiso  ? O
   O1_2       1.0     0.026070     0.368370     0.817570    Uiso  ? O
   O1_3       1.0     0.631630     0.657700     0.817570    Uiso  ? O
   Fe1        0.4600  0.000000     0.000000     0.257900    Uiso  ? Fe
   Fe2        0.5400  0.000000     0.000000     0.047680    Uiso  ? Fe
   Sc1        0.4600  0.000000     0.000000     0.047680    Uiso  ? Sc
   Sc2        0.5400  0.000000     0.000000     0.257900    Uiso  ? Sc
