
#======================================================================
# CRYSTAL DATA
#----------------------------------------------------------------------
data_VESTA_phase_1

_chemical_name_common                  '5yOhtAoR'
_cell_length_a                         5.301000
_cell_length_b                         5.605000
_cell_length_c                         7.505000
_cell_angle_alpha                      90.000000
_cell_angle_beta                       90.000000
_cell_angle_gamma                      90.000000
_cell_volume                           222.989357
_space_group_name_H-M_alt              'Pn'ma''
_space_group_IT_number                 62

loop_
_space_group_symop_operation_xyz
   'x, y, z'
   '-x+1/2t, y+1/2t, -z+1/2t'
   '-x, -y, z+1/2t'
   'x+1/2t, -y+1/2t, -z'
   '-x, -y, -z'
   'x+1/2t, -y+1/2t, z+1/2t'
   'x, y, -z+1/2t'
   '-x+1/2t, y+1/2t, z'

loop_
   _atom_site_label
   _atom_site_occupancy
   _atom_site_fract_x
   _atom_site_fract_y
   _atom_site_fract_z
   _atom_site_adp_type
   _atom_site_U_iso_or_equiv
   _atom_site_type_symbol
   Tb1        1.0     0.483000     0.430000     0.750000    Uiso  ? Tb
   O1         1.0     0.600000     0.031000     0.750000    Uiso  ? O
   O2         1.0     0.700000     0.308000     0.049000    Uiso  ? O
   Mn1        0.5000  0.500000     0.000000     0.000000    Uiso  ? Mn
   Cr1        0.5000  0.500000     0.000000     0.000000    Uiso  ? Cr
