
#======================================================================
# CRYSTAL DATA
#----------------------------------------------------------------------
data_VESTA_phase_1

_chemical_name_common                  'Bi Fe0 .5Sc0 .5O3'
_cell_length_a                         7.874900
_cell_length_b                         5.755400
_cell_length_c                         5.804200
_cell_angle_alpha                      90.000000
_cell_angle_beta                       90.000000
_cell_angle_gamma                      90.000000
_cell_volume                           263.064926
_space_group_name_H-M_alt              'Im'a2''
_space_group_IT_number                 46

loop_
_space_group_symop_operation_xyz
   'x, y, z'
   '-x, -y, z'
   '-x+1/2t, y, z'
   'x+1/2t, -y, z'
   'x+1/2t, y+1/2t, z+1/2t'
   '-x+1/2t, -y+1/2t, z+1/2t'
   '-x, y+1/2t, z+1/2t'
   'x, -y+1/2t, z+1/2t'

loop_
   _atom_site_label
   _atom_site_occupancy
   _atom_site_fract_x
   _atom_site_fract_y
   _atom_site_fract_z
   _atom_site_adp_type
   _atom_site_U_iso_or_equiv
   _atom_site_type_symbol
   Bi         1.0     0.250000     0.520000    -0.074800    Uiso  ? Bi
   Fe         0.5000  0.000000     0.000000     0.000000    Uiso  ? Fe
   Sc         0.5000  0.000000     0.000000     0.000000    Uiso  ? Sc
   O1         1.0     0.047200     0.768700     0.285500    Uiso  ? O
   O2         1.0     0.250000     0.072600     0.065200    Uiso  ? O
