
#======================================================================
# CRYSTAL DATA
#----------------------------------------------------------------------
data_VESTA_phase_1

_chemical_name_common                  '5yOhtAoR'
_cell_length_a                         5.565000
_cell_length_b                         7.806000
_cell_length_c                         5.574900
_cell_angle_alpha                      90.000000
_cell_angle_beta                       90.000000
_cell_angle_gamma                      90.000000
_cell_volume                           242.175846
_space_group_name_H-M_alt              'Imm'a''
_space_group_IT_number                 74

loop_
_space_group_symop_operation_xyz
   'x, y, z'
   '-x+1/2t, y, -z+1/2t'
   'x+1/2t, -y+1/2t, -z+1/2t'
   '-x, -y+1/2t, z'
   '-x+1/2t, -y+1/2t, -z+1/2t'
   'x, -y+1/2t, z'
   '-x, y, z'
   'x+1/2t, y, -z+1/2t'
   'x+1/2t, y+1/2t, z+1/2t'
   '-x, y+1/2t, -z'
   'x, -y, -z'
   '-x+1/2t, -y, z+1/2t'
   '-x, -y, -z'
   'x+1/2t, -y, z+1/2t'
   '-x+1/2t, y+1/2t, z+1/2t'
   'x, y+1/2t, -z'

loop_
   _atom_site_label
   _atom_site_occupancy
   _atom_site_fract_x
   _atom_site_fract_y
   _atom_site_fract_z
   _atom_site_adp_type
   _atom_site_U_iso_or_equiv
   _atom_site_type_symbol
   Bi1        0.8000  0.000000     0.250000     0.502300    Uiso  ? Bi
   La1        0.2000  0.000000     0.250000     0.502300    Uiso  ? La
   Fe1        0.5000  0.000000     0.000000     0.000000    Uiso  ? Fe
   Mn1        0.5000  0.000000     0.000000     0.000000    Uiso  ? Mn
   O1         1.0     0.000000     0.250000     0.073400    Uiso  ? O
   O2         1.0     0.250000     0.533200     0.250000    Uiso  ? O
